# generated using pymatgen
data_CoSb3
_symmetry_space_group_name_H-M   'P 1'
_cell_length_a   9.11522529
_cell_length_b   9.11522529
_cell_length_c   9.11522529
_cell_angle_alpha   90.00000000
_cell_angle_beta   90.00000000
_cell_angle_gamma   90.00000000
_symmetry_Int_Tables_number   1
_chemical_formula_structural   CoSb3
_chemical_formula_sum   'Co8 Sb24'
_cell_volume   757.359749582
_cell_formula_units_Z   8
loop_
 _symmetry_equiv_pos_site_id
 _symmetry_equiv_pos_as_xyz
  1  'x, y, z'
loop_
 _atom_site_type_symbol
 _atom_site_label
 _atom_site_symmetry_multiplicity
 _atom_site_fract_x
 _atom_site_fract_y
 _atom_site_fract_z
 _atom_site_occupancy
  Co  Co1  1  0.750000  0.250000  0.250000  1
  Co  Co2  1  0.750000  0.250000  0.750000  1
  Co  Co3  1  0.250000  0.250000  0.250000  1
  Co  Co4  1  0.750000  0.750000  0.250000  1
  Co  Co5  1  0.250000  0.750000  0.750000  1
  Co  Co6  1  0.250000  0.750000  0.250000  1
  Co  Co7  1  0.750000  0.750000  0.750000  1
  Co  Co8  1  0.250000  0.250000  0.750000  1
  Sb  Sb9  1  0.159520  0.000000  0.666658  1
  Sb  Sb10  1  0.000000  0.333342  0.840480  1
  Sb  Sb11  1  0.333342  0.159520  0.000000  1
  Sb  Sb12  1  0.000000  0.333342  0.159520  1
  Sb  Sb13  1  0.666658  0.840480  0.000000  1
  Sb  Sb14  1  0.000000  0.666658  0.159520  1
  Sb  Sb15  1  0.666658  0.159520  0.000000  1
  Sb  Sb16  1  0.333342  0.840480  0.000000  1
  Sb  Sb17  1  0.000000  0.666658  0.840480  1
  Sb  Sb18  1  0.159520  0.000000  0.333342  1
  Sb  Sb19  1  0.840480  0.000000  0.666658  1
  Sb  Sb20  1  0.840480  0.000000  0.333342  1
  Sb  Sb21  1  0.659520  0.500000  0.166658  1
  Sb  Sb22  1  0.500000  0.833342  0.340480  1
  Sb  Sb23  1  0.833342  0.659520  0.500000  1
  Sb  Sb24  1  0.500000  0.833342  0.659520  1
  Sb  Sb25  1  0.166658  0.340480  0.500000  1
  Sb  Sb26  1  0.500000  0.166658  0.659520  1
  Sb  Sb27  1  0.166658  0.659520  0.500000  1
  Sb  Sb28  1  0.833342  0.340480  0.500000  1
  Sb  Sb29  1  0.500000  0.166658  0.340480  1
  Sb  Sb30  1  0.659520  0.500000  0.833342  1
  Sb  Sb31  1  0.340480  0.500000  0.166658  1
  Sb  Sb32  1  0.340480  0.500000  0.833342  1
