# generated using pymatgen
data_Zn8Cu5
_symmetry_space_group_name_H-M   'P 1'
_cell_length_a   8.86317214
_cell_length_b   8.86317214
_cell_length_c   8.86317214
_cell_angle_alpha   90.00000000
_cell_angle_beta   90.00000000
_cell_angle_gamma   90.00000000
_symmetry_Int_Tables_number   1
_chemical_formula_structural   Zn8Cu5
_chemical_formula_sum   'Zn32 Cu20'
_cell_volume   696.253758344
_cell_formula_units_Z   4
loop_
 _symmetry_equiv_pos_site_id
 _symmetry_equiv_pos_as_xyz
  1  'x, y, z'
loop_
 _atom_site_type_symbol
 _atom_site_label
 _atom_site_symmetry_multiplicity
 _atom_site_fract_x
 _atom_site_fract_y
 _atom_site_fract_z
 _atom_site_occupancy
  Zn  Zn1  1  0.109903  0.109903  0.890097  1
  Zn  Zn2  1  0.890097  0.109903  0.109903  1
  Zn  Zn3  1  0.890097  0.890097  0.890097  1
  Zn  Zn4  1  0.109903  0.890097  0.109903  1
  Zn  Zn5  1  0.033313  0.313991  0.686009  1
  Zn  Zn6  1  0.466687  0.186009  0.186009  1
  Zn  Zn7  1  0.466687  0.813991  0.813991  1
  Zn  Zn8  1  0.313991  0.686009  0.033313  1
  Zn  Zn9  1  0.186009  0.186009  0.466687  1
  Zn  Zn10  1  0.686009  0.033313  0.313991  1
  Zn  Zn11  1  0.813991  0.466687  0.813991  1
  Zn  Zn12  1  0.186009  0.466687  0.186009  1
  Zn  Zn13  1  0.686009  0.313991  0.033313  1
  Zn  Zn14  1  0.813991  0.813991  0.466687  1
  Zn  Zn15  1  0.313991  0.033313  0.686009  1
  Zn  Zn16  1  0.033313  0.686009  0.313991  1
  Zn  Zn17  1  0.609903  0.609903  0.390097  1
  Zn  Zn18  1  0.390097  0.609903  0.609903  1
  Zn  Zn19  1  0.390097  0.390097  0.390097  1
  Zn  Zn20  1  0.609903  0.390097  0.609903  1
  Zn  Zn21  1  0.533313  0.813991  0.186009  1
  Zn  Zn22  1  0.966687  0.686009  0.686009  1
  Zn  Zn23  1  0.966687  0.313991  0.313991  1
  Zn  Zn24  1  0.813991  0.186009  0.533313  1
  Zn  Zn25  1  0.686009  0.686009  0.966687  1
  Zn  Zn26  1  0.186009  0.533313  0.813991  1
  Zn  Zn27  1  0.313991  0.966687  0.313991  1
  Zn  Zn28  1  0.686009  0.966687  0.686009  1
  Zn  Zn29  1  0.186009  0.813991  0.533313  1
  Zn  Zn30  1  0.313991  0.313991  0.966687  1
  Zn  Zn31  1  0.813991  0.533313  0.186009  1
  Zn  Zn32  1  0.533313  0.186009  0.813991  1
  Cu  Cu33  1  0.827447  0.827447  0.172553  1
  Cu  Cu34  1  0.172553  0.172553  0.172553  1
  Cu  Cu35  1  0.172553  0.827447  0.827447  1
  Cu  Cu36  1  0.827447  0.172553  0.827447  1
  Cu  Cu37  1  0.000000  0.644155  0.000000  1
  Cu  Cu38  1  0.644155  0.000000  0.000000  1
  Cu  Cu39  1  0.355845  0.000000  0.000000  1
  Cu  Cu40  1  0.000000  0.355845  0.000000  1
  Cu  Cu41  1  0.000000  0.000000  0.644155  1
  Cu  Cu42  1  0.000000  0.000000  0.355845  1
  Cu  Cu43  1  0.327447  0.327447  0.672553  1
  Cu  Cu44  1  0.672553  0.672553  0.672553  1
  Cu  Cu45  1  0.672553  0.327447  0.327447  1
  Cu  Cu46  1  0.327447  0.672553  0.327447  1
  Cu  Cu47  1  0.500000  0.144155  0.500000  1
  Cu  Cu48  1  0.144155  0.500000  0.500000  1
  Cu  Cu49  1  0.855845  0.500000  0.500000  1
  Cu  Cu50  1  0.500000  0.855845  0.500000  1
  Cu  Cu51  1  0.500000  0.500000  0.144155  1
  Cu  Cu52  1  0.500000  0.500000  0.855845  1
